parte-1/ComRede_20170628/PESADA.PWF
TITU
ONS PDPM ABRIL 2017 - PESADA                                                    
DAGR
(AG (         D E S C R I C A O        )
  6 SUSISTEMAS ENERGETICOS               
(ID O (       Nome de Identificacao      )
  1   SUDESTE/CENTRO-OESTE                 
  2   SUL                                  
  3   NORDESTE                             
  4   NORTE                                
  5   0UTROS                               
FAGR
99999
DOPC IMPR
(Op) E (Op) E (Op) E (Op) E (Op) E (Op) E (Op) E (Op) E (Op) E (Op) E
STEP L NEWT L RCVG L RMON L FILE L NOVO L CELO L MFCT L AREG L STPO L
VLCR L CPHS L
99999
DCTE
(Mn) ( Val) (Mn) ( Val) (Mn) ( Val) (Mn) ( Val) (Mn) ( Val) (Mn) ( Val) 
BASE   100. DASE   100. TEPA    .01 EXST    .04 TETP     5. TBPA     5.
TLPP     1. TEPR    .01 QLST    .04 TLPR    .01 TLPQ     2. TSBZ    .01
TSBA     5. ASTP    .05 VSTP     5. TLVC    .05 TLTC    .01 TSFR  .1E-7
ZMAX   500. TLPV     .5 VDVM   200. VDVN    40. TUDC   .001 TADC    .01
PGER    30. TPST    .02 VFLD    70. ZMIN   .001 HIST    470 LFIT     10
ACIT    100 LFCV      1 DCIT     10 VSIT     10 LPIT     50 LFLP     10
PDIT     10 LCRT    200 LPRT     60 CSTP     5. ASDC     1.
ICIT     50 DMAX      5 FDIV     2. ICMN    .05 VART     5. TSTP     32
ICMV     .5 APAS    90. CPAR    70. VAVT     2. VAVF     5. VMVF    15.
VPVT     2. VPVF     5. VPMF    10. VSVF    20. VINF     1. VSUP     1.
TLSI     0. NDIR    20. STTR     5. TRPT   100. STIR     1. BFPO     1.
99999
DBAR
(Num)OETGb(   nome   )Gl( V)( A)( Pg)( Qg)( Qn)( Qm)(Bc  )( Pl)( Ql)( Sh)Are(Vf)M(1)(2)(3)(4)(5)(6)(7)(8)(9)(10
   10 L1 VANGRA1UNE001 51025-3.2   0.-16.7-211. 414.                      441000                  1                
   11 L1 VANGRA2UNE001 51025 -3.   0.-31.9-600. 600.                      441000                  1                
   12 L1 VLCBARRUHE005 510503.95   0.-121.-450. 350.                       11000                  1                
   13 L1 TLCBARRSIN000 510344.83   0.-208.   0.   0.                       11000                  1                
   14 L1 VFUNIL1UHE002 5 961-28.   0.-79.9-100. 100.                       11000                  1                
   16 L1 VFURNASUHE004 510508.21   0.58.58-200. 200.                       11000                  1                
   17 L1 TFURNASSIN000 51022-4.7   0.-233.   0.   0.                       11000                  1                
   18 L1 VITUMBIUHE003 5105027.9   0.351.6-273. 300.                      991000                  1                
   19 L1 TITUMBISIN000 5102510.4   0.-75.5   0.   0.                       11000                  1                
   20 L1 VMARIMBUHE007 51050 18.   0.-794.-560. 560.                       11000                  1                
   21 L1 VMANSO-UHE002 5100326.4   0.-11.2 -40.  42.                      991000                  1                
   22 L1 VM.MORAUHE006 510505.11   0.-46.2-120. 126.                       11000                  1                
   24 L1 VM.MORBUHE003 5 9795.13   0.-19.7 -18. 46.5                       11000                  1                
   25 L  FXAVA-2-GO230 510232.27   0.                                      11000                  1                
   26 L  FPIRI-2-GO230 51007-.64   0.                                      11000                  1                
   28 L1 VPCOLOMUHE004 51004 21.   0.-113.-100. 100.                       11000                  1                
   30 L1 VSCRU19UTE000 51043-21.   0. -80.   0.   0.                       11000                  1                
   31 L1 VSCRU13UTE000 5 981-21.   0.-20.3   0.   0.                       11000                  1                
   32 L1 VSCRU16UTE000 51026-21.   0.-123.   0.   0.                       11000                  1                
   35 L1 VCORUMBUHE001 5 99310.9   0.-40.9 -60.  60.                      991000                  1                
   36 L1 VS.MESAUHE001 510507.96   0.126.6-190. 190.                      991000                  1                
   37 L1 TS.MESASIN000 510114.61   0.-42.4   0.   0.                       11000                  1                
   38 L1 TGRAJA2SIN001 5 974-23.   0.-204.-120. 200.   1781.261   0.       11000                  1                
   40 L1 TB.GER1SIN000 51038 -6.   0.-9.15   0.   0.                       11000                  1                
   41 L1 TVITOR2SIN001 5 989-40.   0.10.51 -30.  60.   111                 11000                  1                
   42 L  TBAND-1CER013 5 9663.09   0.                                      11000                  1                
   43 L  TBAND-2CER013 5 9663.09   0.                                      11000                  1                
   44 L1 TGRAJA1SIN001 5 973-23.   0.-192.-120. 200.   1781.261   0.       11000                  1                
   46 L  TCAMPOSCER013 51005-31.   0.                                      11096                  1                
   47 D1 TVITOR1SIN001 51000  0.   0.   0. -35.  60.   151                 11000                  1                
   48 L1 TIBIUNASIN004 51005-2.1   0.-2691-10801200.    86                 11000                  1                
   50 L1 TTPRETOSIN001 5 970-6.9   0.-324.-180. 300.      .5335   0.       11000                  1                
   55 L  TBALTO-CER013 5 977-13.   0.                                      11000                  1                
   56 L  IIVAIP3-PR069 5 89018.4   0.                                      11000                  1                
   57 L  IIVAIP2-PR069 5 99518.5   0.                                      1 960                  1                
   58 L  UIVAIP2-PR000 6105918.5   0.                                      1 960                  1                
   59 L  UIVAIP3-PR000 6 99818.4   0.                                      11000                  1                
   60 L  AF.IGUA-PR765 1 98428.8   0.                                      11000                  1                
   61 L  CFZ-500-PR500 3101933.9   0.                                      11000                  1                
   62 L  AIV-FZ1CAP765 1107110.1   0.                                      11000                  1                
   63 L  AIV-FZ2CAP765 1107010.1   0.                                      11000                  1                
   64 L  AIV-FZ3CAP765 1106610.4   0.                                      11034                  1                
   65 L  AIVAIPO-PR765 11042 17.   0.                                      11000                  1                
   66 L  BIVAIPO-PR525 2103018.2   0.                                      11000                  1                
   67 L  IIVAIP1-PR069 5105418.2   0.                     .2328   0.       11000                  1                
   68 L  UIVAIP1-PR000 6105418.2   0.                                      11000                  1                
   69 L  AIV-IT1CAP765 1102325.9   0.                                      11000                  1                
   70 L  AIV-IT2CAP765 1102425.9   0.                                      11000                  1                
   71 L  AIV-IT3CAP765 1102325.8   0.                                      11014                  1                
   72 L  AITABER-SP765 110628.62   0.                                      11000                  1                
   73 L  AIT-TP1CAP765 1102518.8   0.                                      11000                  1                
   74 L  AIT-TP2CAP765 1102618.8   0.                                      11000                  1                
   75 L  AIT-TP3CAP765 1102318.3   0.                                      11000                  1                
   76 L  ATPRETO-SP765 11034-1.4   0.                                      11000                  1                
   77 L  CTPRETO-SP500 31070-3.8   0.                                      11000                  1                
   78 L  ETPRETO-SP345 51128-6.3   0.                                      11000                  1                
   79 L  ITPRETO-SP069 51049-3.9   0.                                      11000                  1                
   80 L  UTPRAT3-SP000 61049-3.9   0.                                      11000                  1                
   81 L  UTPRAT4-SP000 61053-6.8   0.                                      11000                  1                
   82 L  ETPRET2-SP345 51134-6.2   0.                                      11000                  1                
   85 L1 1itaipu-50     122042.6   0.1986.-999999999                      171000                  1                
   86 L  EIBIUNA-SP345 51030-2.1   0.                     64.02   0.2957.  11000                  1                
   87 L  CRESEND-RJ500 31146-12.   0.                       36.  7.3      651000                  1                
   90 L  EVIANA--ES345 51022-39.   0.                                      11010                  1                
   91 L  NVI1TAP-ES013 51019-43.   0.                                     111010                  1                
   92 L  CSB-SM1CAP500 31079-1.5   0.                                      11000                  1                
   93 L  CSB-SM2CAP500 31091-.82   0.                                      11000                  1                
   94 L  CSB-SM3CAP500 31091-.81   0.                                      11000                  1                
   95 L  NVI2TAP-ES013 51019-43.   0.                                     111010                  1                
   96 L  NVI3TAP-ES013 51019-43.   0.                                      11000                  1                
   97 L  EGUARU2-SP345 51167 -9.   0.                                      11000                  1                
   98 L  GJACAR2-RJ138 51071-23.   0.                                      11000                  1                
   99 L  BARARAQ-SP525 211531.25   0.                                      11000                  1                
  100 L  CMARIMB-MG500 311319.27   0.                                      11000                  1                
  101 L  CARARAQ-SP500 312121.23   0.                                      11000                  1                
  102 L  CP.CALD-MG500 31175-3.6   0.                                      11000                  1                
  103 L  CCAMPIN-SP500 31216-5.3   0.                                      11000                  1                
  104 L  CC.PAUL-SP500 31157-9.9   0.                                      11000                  1                
  105 L  CANGRA--RJ500 31113-10.   0.                                      11000                  1                
  106 L  CADRIAN-RJ500 31111-16.   0.                                      11000                  1                
  107 L  CGRAJAU-RJ500 31095-19.   0.                                      11000                  1                
  108 L  CS.JOSE-RJ500 31096-17.   0.                                      11000                  1                
  109 L  CBYPSAD-RJ500 31111-16.   0.                                      11000                  1                
  110 L  UGR1T52-RJ000 61032-23.   0.                                      11000                  1                
  111 L  NVIT2CI-ES013 5 972-40.   0.                                      11000                  1                
  112 L  CBATEI1-PR500 311221.86   0.                                      11000                  2                
  113 L  CBATEI2-PR500 311221.86   0.                                      11000                  2                
  116 L  GIMBTAP-RJ138 51082-24.   0.                                      11000                  1                
  118 L  UBANDT4-GO000 5 9972.31   0.                                      11000                  1                
  119 L  XBANDTE-GO013 5 9972.31   0.                                      11000                  1                
  120 L  EP.CALD-MG345 51129-6.1   0.                                      11000                  1                
  121 L  UPCAT51-MG000 61118-6.7   0.                                      11000                  1                
  122 L  CIBIUNA-SP500 31070-1.9   0.                                      11000                  1                
  123 L  ECAMPIN-SP345 51003-7.2   0.                                      11000                  1                
  124 L  UCAMPI1-SP000 61170-7.7   0.                                      11000                  1                
  125 L  CIBBAT1-PR500 31242-4.9   0.                                      11000                  1                
  126 L  EGUARUL-SP345 51166 -9.   0.                                      11000                  1                
  127 L  EMO-RL1-SP345 51134-7.9   0.                                      11000                  1                
  128 L  EMO-RL2-SP345 51134-7.9   0.                                      11015                  1                
  129 L  EMOGI---SP345 51139-8.6   0.                                      11000                  1                
  130 L  CIBBAT2-PR500 31242-4.9   0.                                      11000                  1                
  131 L  EM.MORA-MG345 51071-.35   0.                                      11000                  1                
  132 D  UM.MORA-MG000 61018-21.   0.                                      11000                  1                
  133 L  UADRT1A-RJ000 61091-23.   0.                                      11000                  1                
  134 L  ELCBARR-SP345 51063.662   0.                                      11000                  1                
  135 L  UJACT1A-RJ000 61069-23.   0.                                      11000                  1                
  136 L  EFURNAS-MG345 51066-4.7   0.                                      11000                  1                
  137 L  UJACT2A-RJ000 61069-23.   0.                                      11000                  1                
  138 L  EITUTIN-MG345 51080-16.   0.                                      11000                  1                
  139 L  UADRT51-RJ000 61062-20.   0.                                      11014                  1                
  140 L  EADRIAN-RJ345 51095-21.   0.                                      11000                  1                
  141 L  UADRT53-RJ000 61041-21.   0.                                      11000                  1                
  142 L  UADRT55-RJ000 61040-22.   0.                                      11060                  1                
  143 L  UADRT2B-RJ000 61091-23.   0.                                      11030                  1                
  144 L  EJACARE-RJ345 51086-21.   0.                                      11000                  1                
  145 L  UADRT1B-RJ000 61092-23.   0.                                      11000                  1                
  146 L  UADRT2A-RJ000 61088-23.   0.                                      11000                  1                
  147 L  ECAMPOS-RJ345 51035-31.   0.                                      11000                  1                
  148 L  UCAMPO1-RJ000 61046-34.   0.                                      11000                  1                
  149 L  EVITORI-ES345 51018-40.   0.                                      11000                  1                
  150 L  UVITAT1-ES000 61007-44.   0.                                      11000                  1                
  151 L  NVIT1CI-ES013 5 983-40.   0.                                      11000                  1                
  152 L  UVITAT2-ES000 61006-44.   0.                                      11000                  1                
  153 L  UVITAT3-ES000 61004-44.   0.                                      11000                  1                
  154 L  NVITAT2-ES013 51006-44.   0.                                      11000                  1                
  155 L  NVITAT3-ES013 51056-44.   0.                                      11000                  1                
  156 L  NVITAT4-ES013 51057-44.   0.                                      11000                  1                
  157 L  ECAMPCA-RJ345 51041-31.   0.                                      11000                  1                
  158 L  UVITAT4-ES000 61005-44.   0.                                      11000                  1                
  159 L  XJA-R30-RJ013 51069-23.   0.                                      11000                  1                
  160 L  XJB-R60-RJ013 51070-23.   0.                                      11000                  1                
  161 L  FMO-FCE-SP230 51012-9.5   0.                     .3201   0.       11000                  1                
  162 L  UCAMAT1-SP000 61167-8.6   0.                                      11000                  1                
  163 L  XCAMPI--SP013 51132-8.6   0.                                      11000                  1                
  164 L  UPCAT02-MG000 61128-7.6   0.                                      11000                  1                
  165 L  NP.CAL--MG013 51092-7.6   0.                                      11000                  1                
  166 L  UJACT1B-RJ000 61070-23.   0.                                      11000                  1                
  167 L  XJA-R60-RJ013 51069-23.   0.                                      11000                  1                
  168 L  FBANDE2-GO230 510242.39   0.                                      11000                  1                
  169 L  GSJOSE1-RJ138 51028-20.   0.                                      11000                  1                
  170 L  GP.CALD-MG138 51033-7.4   0.                                      11000                  1                
  171 L  GCAMPIN-SP138 51012-8.8   0.                     .9797   0.       11000                  1                
  172 L  GIMBARE-RJ138 51065-21.   0.                                      11000                  1                
  173 L  GADRIAN-RJ138 51030-23.   0.                                      11000                  1                
  174 L  GR.LEAO-RJ138 51017-40.   0.                                      11000                  1                
  175 L  GCAMPOS-RJ138 51040-34.   0.                     .2425   0.       11000                  1                
  176 L  UCAMPI2-SP000 61168-7.3   0.                                      11000                  1                
  177 L  GVITORI-ES138 51030-44.   0.                                      11000                  1                
  178 L  GGRAJAU-RJ138 51030-23.   0.                                      11000                  1                
  179 L  UGR2T54-RJ000 61031-23.   0.                                      11000                  1                
  180 L  GJACAR1-RJ138 51071-23.   0.                                      11000                  1                
  181 L  GANGDEF-RJ138 51019-14.   0.   0.                                 11037                  1                
  182 L  GFUNIL--RJ138 51009-30.   0.                                      11000                  1                
  183 L  GC.PAUL-SP138 51044-13.   0.                                      11000                  1                
  184 L  GS.CRUZ-RJ138 51065-21.   0.                                      11000                  1                
  185 L  GANGRA--RJ138 51087-16.   0.   0.                 2.91   0.       11000                  1                
  186 L  NCAMPI2-SP013 51168-7.3   0.                                      11000                  1                
  187 L  GM.MORA-MG138 51037-.85   0.                                      11000                  1                
  189 L  UBGERT1-DF000 61062 -6.   0.                                      11000                  1                
  190 L  GP.COL--MG138 5104814.9   0.                                      11000                  1                
  192 L  NCM1CAP-RJ013 51046-34.   0.                                      11000                  1                
  193 L  NCM1REA-RJ013 51046-34.   0.                                      11000                  1                
  194 L  NADRT55-RJ013 51040-22.   0.                                      11080                  1                
  195 L  NADRT53-RJ013 51041-21.   0.                     2.241   0.       11000                  1                
  196 L  NCAMPI1-SP013 51170-7.7   0.                                      11000                  1                
  197 L  NADRT51-RJ013 51062-20.   0.                                      11014                  1                
  198 L  NPCALAT-MG013 51118-6.8   0.                     1.135   0.       11000                  1                
  199 L  NVITAT1-ES013 51007-44.   0.                     .4074   0.       11000                  1                
  200 L  UUCAMP1-RJ000 6 998-37.   0.                                      11000                  1                
  201 L1 VRSIL-1UTE001 5 984-37.   0.-2.28   0.   0.      1.125   0.       11000                  1                
  202 L  UUCAMP2-RJ000 6 998-37.   0.                                      11000                  1                
  203 L1 VRSIL-2UTE001 5 984-37.   0.-2.28   0.   0.      1.125   0.       11000                  1                
  204 L  NADRT1B-RJ013 51092-23.   0.                                      11000                  1                
  205 L  NADRT2A-RJ013 51147-23.   0.                                      11000                  1                
  206 L  NADRT2B-RJ013 51091-23.   0.                                      11030                  1                
  208 L  NBGERT1-DF013 51056 -6.   0.                                      11000                  1                
  209 L  XADRIAN-RJ013 51091-23.   0.                                      11000                  1                
  210 L  CITUMBI-MG500 3110710.4   0.                                      11000                  1                
  211 D  UCAMPO2-RJ000 61043-68.   0.                                      11000                  1                
  212 D  NCM2CAP-RJ013 51024-68.   0.                                      11000                  1                
  213 L  EMARIMB-MG345 510697.26   0.                                      11000                  1                
  214 L  UMARIMB-MG000 610706.72   0.                                      11000                  1                
  215 D  NCM2REA-RJ013 51024-68.   0.                                      11000                  1                
  216 L  EP.COL--MG345 510675.16   0.                                      11000                  1                
  217 L  EITUMBI-MG345 510548.65   0.                                      11000                  1                
  218 L  EBANDEI-GO345 510093.09   0.                                      11000                  1                
  219 L  EB.SUL--DF345 51041 -.4   0.                                      11000                  1                
  220 L  ECORUMB-GO345 510586.88   0.                                      11000                  1                
  221 L  LB.GERA-DF034 51015-5.8   0.                                      1 991                  1                
  222 L  UBSULT2-DF000 61041-2.3   0.                                      11000                  1                
  223 L  UBANDT1-GO000 5 9962.24   0.                                      11000                  1                
  224 L  UBANDT2-GO000 5 994 2.2   0.                                      1 987                  1                
  225 L  FITUMBI-MG230 510138.85   0.                                      11000                  1                
  226 L  FBANDEI-GO230 510242.39   0.                     .2716   0.       11000                  1                
  227 L  FB.GERA-DF230 51040-2.1   0.                                      11000                  1                
  228 L  FB.SUL--DF230 51041-1.9   0.                                      11000                  1                
  229 L  FB.ALTO-GO230 51006-13.   0.                     .5238   0.       11000                  1                
  230 L  FS.MESA-GO230 510443.76   0.                                      11000                  1                
  231 L  FR.VERD-GO230 5103110.7   0.                                      11000                  1                
  232 L  NBSULT2-DF013 51041-2.3   0.                                      11000                  1                
...
99999
DLIN
(De )d O d(Pa )NcEP ( R% )( X% )(Mvar)(Tap)(Tmn)(Tmx)(Phs)(Bc  )(Cn)(Ce)Ns(Cq)(1)(2)(3)(4)(5)(6)(7)(8)(9)(10
   25        26 1    1.008 4.753 8.797                          219.278.  298.                                
   25        26 2    .64624.5509 9.073                          298.376.  298.                                
   26      3723 1           .001                                319.319.  319.                                
   38       17954           2.72         1.                     200.200.  200.                                
   40       208 1            20.         1.                      20. 20.   20.                                
   41       111 1         13.333         1.                      60. 60.   60.                                
   44       11052         2.9999         1.                     200.200.  200.                                
   47       151 1            10.                                 60. 60.   60.                                
   50        81 4          2.498         1.                     500.500.  500.                                
   56        59 1         3.3855         1.                     550.550.  1650                                
   57        58 1         3.6218         1.                     550.550.  550.                                
   60        62 1     .076  1.84 927.8                          36844173  3684                                
   60        63 1     .076  1.85 929.1                          36844173  3684                                
   60        64 1     .078  1.89954.57                          36844173  3684                                
   61        60 1 T         .623       1.05                     16501650  1650                                
   61        60 2 T         .642       1.05                     16501650  1650                                
   61        60 3 T         .623       1.05                     16501650  1650                                
   61        60 4 T         .623       1.05                     16501650  1650                                
   65        58 1          .8224       .993                     16501650  1650                                
   65        59 1          .7733         1.                     16501832  2598                                
   65        62 1          -.749                                36844173  3684                                
   65        63 1          -.749                                36844173  3684                                
   65        64 1          -.749                                36844173  3684                                
   65        68 1           .697       .993                     16501650  1650                                
   65        69 1          -.778                                36844173  3684                                
   65        70 1          -.778                                36844173  3684                                
   65        71 1          -.778                                36844173  3684                                
   66        58 1         -.1703      .9917 .8381.053         6616501650271650                                
   66        59 1         -.1124      1.045 .8381.113         6616501650271650                                
   66        68 1         -.0303      .9917 .8381.053         6616501650271650                                
   67        68 1         3.5455         1.                     550.550.  550.                                
   72        69 1     .064  1.53  760.                          36844173  3684                                
   72        70 1     .063  1.53 755.7                          36844173  3684                                
   72        71 1     .064  1.54 762.9                          36844173  3684                                
   72        73 1          -.915                                36844173  3684                                
   72        74 1          -.915                                36844173  3684                                
   72        75 1          -.915                                36844173  3684                                
   76        73 1     .072  1.75 877.5                          36844173  3684                                
   76        74 1     .072  1.75  873.                          36844173  3684                                
   76        75 1      .07   1.8 901.7                          36844173  3684                                
   76        80 3           .697       .993                     16501815  1650                                
   76        81 4         1.0276         1.                     15001650  1500                                
   77        76 1          .6658      1.099  .88 1.16         7716501650321650                                
   77        76 2          .6552      1.099  .88 1.16         7716501650321650                                
   77        80 3         -.0303      1.099  .88 1.16         7716501815321650                                
   77       104 1     .165 2.521214.77                          18552165  1855                                
   77       598 1 T   .106 1.441133.32                          18552252  1855                                
   78        76 5          .9007      1.077                     15001500  147.                                
   78        81 4         -.1069      1.077                     15001650  1500                                
   78        82 1           1.26                                450.450.  450.                                
   78        86 2     .185   2.6  60.1                          12801613  1280                                
   78       449 1 T    .07   .6612.845                          11841195  1184                                
   78       449 2 T    .07   .6612.845                          11841195  1184                                
   78       464 3      .11   .9917.073                          912.1103  912.                                
   78       471 1 T  .0954 .7982 14.39                          11841392  1184                                
   78       471 2 T  .0954 .7982 14.39                          11841392  1184                                
   79        80 3         3.5455         1.                     550.550.  550.                                
   82        76 6           .892      1.077                     15001650  1500                                
   82        76 7          .8727      1.077                     15001650  1500                                
   82        86 1      .14  2.36 66.19                          12801613  1280                                
   82       449 3      .07   .6612.845                          13501350  1350                                
   82       449 4      .07   .6612.845                          13501350  1350                                
   85        86 1      .31    8.                                                                              
   85        86 2      .31    8.                                                                              
   85        86 3      .31    8.                                                                              
   85        86 4      .31    8.                                                                              
   86        48 1         .71475      1.013                     10501050  1050                                
   86       122 1         1.9147      .9939 .8951.048       -122750.802.32750.                                
   86       122 2         1.9075      .9939 .8951.048       -122750.802.32750.                                
   86       122 3         1.8165      .9939 .8951.048       -122750.802.32750.                                
   86       488 1 T  .09481.4987 41.91                          20202390  2020                                
   86       488 2 T  .09481.4987 41.91                          20202390  2020                                
   87       106 2       .1  1.61 136.6                          18552337  1855                                
   90      2590 1            .01                                370.370.  370.                                
   90      2608 1         4.8974      1.004                     225.304.  225.                                
   90      2618 1         4.9124      1.004                     225.304.  225.                                
   90      2628 1         4.6901      1.004                     225.304.  225.                                
   91      2608 1            9.7         1.                      75. 75.   75.                                
   95      2618 1         9.7744         1.                      75. 75.   75.                                
   97        86 1      .11  1.83 51.18                          17072150  1707                                
   97        86 2      .11  1.83 51.18                          17072150  1707                                
   97       126 1 T          .01                                                                              
   97       435 1 T    .01   .13 3.589                          17931793  1793                                
   97       435 2 T    .01   .13 3.589                          17931793  1793                                
   97       439 1    .0366 .5575 15.37                          23902390  2390                                
   97       439 2    .0366 .5575 15.37                          23902390  2390                                
   98       135 1          -.508         1.                     225.315.  225.                                
   98       166 1          -.389         1.                     225.292.  225.                                
   98       178 1      .88  5.03 1.428                          218.264.  218.                                
   98       289 1     .132 1.409  .857                          359.454.  359.                                
   98       293 1      .66  3.85  1.11                          194.247.  194.                                
   98      1640 1 T   .057  .614  .373                          359.454.  359.                                
   98      3958 1      .54  3.06   .87                          218.264.  218.                                
   99       101 1            .01       .952                     20002000  2000                                
   99       556 1     .182 2.807 350.1                          20012001  2001                                
  100        20 1         .90286         1.                     15201520  1520                                
  100       101 1     .172  2.72 231.4                          18552337  1855                                
  100       101 2     .171   2.7 230.2                          18552337  1855                                
  100       214 1          2.978       1.05                     560.717.  560.                                
  100       535 1     .153   2.4 203.8                          17321732  1732                                
  100      3110 1    .11881.8126 159.6                          19922390  1992                                
  100      4598 1D    .001  .011   1.5                          18552337  1855                                
  100      4598 2D    .001  .011   1.5                          18552337  1855                                
  101       102 1     .156  2.46 208.5                          18552337  1855                                
  101       103 1     .152  2.39 202.6                          18552337  1855                                
  102       121 1          2.929       1.05                     560.716.  560.                                
  102      1503 1      .11  1.91161.85                          18552337  1855                                
  103       124 1          2.941       1.05                     560.717.  560.                                
  103       176 1         2.9875       1.05                     560.560.  560.                                
  103      6609 1     .025  .40534.087                          18552337  1855                                
  104        77 2     .125 1.913285.35                          27282728  2728                                
  104        87 2      .05   .78  66.5                          18552337  1855                                
  104       103 1     .196   3.1 264.9                          18552337  1855                                
  104       598 1     .076 1.179 99.91                          18552252  1855                                
  104      1503 1      .05   .82 69.36                          18552337  1855                                
  104      9626 3    .11141.6648 254.3                          24732598  2473                                
  105        10 1           1.97      1.075                     759.759.  759.                                
  105        11 1            .95      1.075                     14701470  1470                                
  105       104 1     .092  1.48 119.6                          18552337  1855                                
  105       108 1     .112  1.82161.37                          18552337  1855                                
  105      9601 1      .08  1.29119.58                          18552337  1855                                
  106       104 1     .152  2.39 202.7                          18552337  1855                                
  106       108 1      .02   .41  44.3                          25982598  2598                                
  106       109 1             .1                                24732598  2473                                
  106       139 1         2.1627       1.05                     560.672.  560.                                
  106       141 1         2.9216       1.05                     560.716.  560.                                
  106       142 1         3.2281       1.05                     560.716.  560.                                
  107       11052          2.522       1.05                     600.753.  600.                                
  107       17954          2.522       1.05                     600.753.  600.                                
  107      9601 1      .07  1.16107.26                          18552337  1855                                
  109       107 1     .033   .68  73.8                          25982598  2598                                
  109      9626 3    .0135 .1891 28.58                          24732598  2473                                
  112       895 1            .01       1.05                     12992252  2252                                
  113       895 1            .01       1.05                     12992252  2252                                
  116       172 1DT   .125  .722  .207                          145.145.  145.                                
  116       173 1 T   .625 3.608 1.033                          153.193.  146.                                
  116      1732 1     2.29 13.23 3.804                          146.207.  146.                                
  119       118 1          15.04         1.                      75. 75.   75.                                
  120       121 1          -.526       1.01                     560.716.  560.                                
  120       123 1     .359 3.945 66.68                          717.717.  717.                                
  120       164 2           7.52       .957                     150.150.  150.                                
  120       697 1     .376 4.19171.478                          717.717.  717.                                
  122       125 1         -2.051                                12992251  2251                                
  122       130 1         -2.051                                12992251  2251                                
  122      6609 1     .075 1.215102.26                          18552337  1855                                
  123       124 1          -.521      .9801  .95  1.1        123560.717.32560.                                
  123       162 1         5.5633       1.04                     149.149.  150.                                
  123       176 1         -.0542      .9801  .95  1.1        123560.560.32560.                                
  125       112 1 T   .308 3.958444.84                          12992251  2251                                
  126       120 1       .6  5.95  92.8                          598.598.  598.                                
  126       120 2     .606  6.02  93.8                          598.598.  598.                                
  126       123 1     .252 2.761 46.52                          717.717.  717.                                
  126       442 1      .12  1.1718.479                          776.977.  776.                                
  127       129 1            .76                                956.956.  912.                                
  128       129 1            .76                                956.956.  912.                                
  129       442 1      .09   .84 13.38                          776.977.  776.                                
  130       113 1     .308 3.958444.84                          12992251  2251                                
  131        22 1         3.6933         1.                     378.378.  378.                                
  131       132 1          6.619         1.                     150.150.  150.                                
  131      3012 1      .02  .214   3.6                          853.1075  853.                                
  134        12 1          1.068       .999                     11361136  1136                                
  134        13 1          1.335       .999                                                                   
  134       120 1     .556  6.16 105.3                          853.1075  853.                                
  134       120 2     .553  6.13 104.7                          853.1075  853.                                
  134       396 1      .32 3.509 59.24                          853.1075  853.                                
  134      3012 1      .07   .79  13.3                          853.1075  853.                                
  134      3012 2      .07   .79  13.3                          853.1075  853.                                
  136        16 1           1.92         1.                     12801280  1280                                
  136        17 1           1.92         1.                                                                   
  136       120 1     .436   4.3  66.6                          776.977.  776.                                
  136       120 2     .436   4.3  66.6                          776.977.  776.                                
  136       131 1     .348  3.42  52.8                          717.717.  717.                                
  136       138 1     .649  6.46 100.8                          776.956.  776.                                
  136       138 2     .558  6.19 105.7                          853.956.  853.                                
  136       367 1     .222 2.17433.425                          776.977.  776.                                
  136       367 2 T   .179 1.78434.299                          11321132  1132                                
  138       331 1     .423 4.39973.673                          11591159  1159                                
  140       133 1         4.7185      1.005                     225.225.  225.                                
  140       138 1 T   .652   6.5 101.4                          776.896.  776.                                
  140       138 2 T   .558  6.19 105.7                          853.896.  853.                                
  140       139 1          .2794       1.03                     560.672.  560.                                
  140       141 1          -.272       1.05                     560.716.  560.                                
  140       142 1           -.54       1.05                     560.716.  560.                                
  140       143 1         4.6867      1.005                     225.225.  225.                                
  140       144 1     .127  1.25  19.3                          776.956.  776.                                
  140       144 2     .109  1.19  20.1                          853.1075  853.                                
  140       145 1         4.4511      1.005                     225.225.  225.                                
  140       146 1         5.0556      1.005                     225.252.  225.                                
  140      1781 1       .3  3.34 55.83                          853.1075  853.                                
  140      3966 2      .48  5.31 92.69                          766.1132  766.                                
  140      9607 1DT   .212  2.35 40.23                          853.1075  853.                                
  144       135 1           4.41      1.004                     225.315.  225.                                
  144       137 1         4.6275      1.004                     225.315.  225.                                
  144       166 1         4.4023      1.004                     225.292.  225.                                
  147        46 1         13.054         1.                     100.100.  100.                                
  147        90 1     .566 6.253107.02                          747.747.  747.                                
  147       148 1         4.7705      1.004                     225.266.  225.                                
  147       149 1     .629  6.98  120.                          717.717.  717.                                
  147       157 1            .01                                                                              
  147       211 2D        4.5333      1.004                     225.270.  225.                                
...
99999
DCSC
(De ) O  (Pa )NcEPB      (Xmin)(Xmax)( Xv )C ( Vsp) (Ext)Nst(1)(2)(3)(4)(5)(6)(7)(8)(9)(10
 7592     5590 1          -1.76  -.59 -.637X  -.637  7592                                  
  235     7236 1          -1.76  -.59 -.637X  -.637   235                                  
  235     7237 1          -1.76  -.59 -.637X  -.637   235                                  
 7594     5590 1          -1.76  -.59 -.637X  -.637  7594                                  
99999
DBSH
(NFr) O (NTo) Nc C (Vmn (Vmx Bctrl (Qini) T A (Extr
   40            D 0950 1050    40        C         
(G  O E (U) UOp (Sht )
10    D   1   0   -10.
FBAN
(NFr) O (NTo) Nc C (Vmn (Vmx Bctrl (Qini) T A (Extr
   56            D 1020 1040    56  -360. C         
(G  O E (U) UOp (Sht )
10        2   2  -180.
FBAN
(NFr) O (NTo) Nc C (Vmn (Vmx Bctrl (Qini) T A (Extr
   57            D 1020 1040    57  -180. C         
(G  O E (U) UOp (Sht )
10        3   1  -180.
FBAN
(NFr) O (NTo) Nc C (Vmn (Vmx Bctrl (Qini) T A (Extr
   65            D 1020 1040    65        C         
(G  O E (U) UOp (Sht )
10        1   0  -330.
FBAN
(NFr) O (NTo) Nc C (Vmn (Vmx Bctrl (Qini) T A (Extr
   67            D 1020 1040    67        C         
(G  O E (U) UOp (Sht )
10        3   0  -180.
FBAN
(NFr) O (NTo) Nc C (Vmn (Vmx Bctrl (Qini) T A (Extr
   72            D 1020 1040    72        C         
(G  O E (U) UOp (Sht )
10        1   0  -330.
FBAN
(NFr) O (NTo) Nc C (Vmn (Vmx Bctrl (Qini) T A (Extr
   78            D 1020 1050    78   200. C         
(G  O E (U) UOp (Sht )
10        4   1   200.
FBAN
(NFr) O (NTo) Nc C (Vmn (Vmx Bctrl (Qini) T A (Extr
   79            D 1010 1095    79        C         
(G  O E (U) UOp (Sht )
10        2   0  -180.
FBAN
(NFr) O (NTo) Nc C (Vmn (Vmx Bctrl (Qini) T A (Extr
   82            D 1020 1050    82   400. C         
(G  O E (U) UOp (Sht )
10        5   2   200.
FBAN
(NFr) O (NTo) Nc C (Vmn (Vmx Bctrl (Qini) T A (Extr
   86            F 0950 1050    86 2320.4 C         
(G  O E (U) UOp (Sht )
10        2   2    59.
20        3   3  220.8
30        4   4   237.
40        1   0  279.8
50        2   0   294.
60        2   2   296.
FBAN
(NFr) O (NTo) Nc C (Vmn (Vmx Bctrl (Qini) T A (Extr
  147      90  1 D 0950 1050    90        C      90 
(G  O E (U) UOp (Sht )
10        1   0   -60.
FBAN
(NFr) O (NTo) Nc C (Vmn (Vmx Bctrl (Qini) T A (Extr
  210     100  1 D 0950 1050   100  -100. C     100 
(G  O E (U) UOp (Sht )
10        1   1  -100.
FBAN
(NFr) O (NTo) Nc C (Vmn (Vmx Bctrl (Qini) T A (Extr
  370     100  1 F 1000 1100   100  -100. C     100 
(G  O E (U) UOp (Sht )
10        1   1  -100.
FBAN
(NFr) O (NTo) Nc C (Vmn (Vmx Bctrl (Qini) T A (Extr
  104     103  1 D 0950 1050   103        C     103 
(G  O E (U) UOp (Sht )
10        1   0  -112.
FBAN
(NFr) O (NTo) Nc C (Vmn (Vmx Bctrl (Qini) T A (Extr
  104            D 1000 1100   104  -136. C         
(G  O E (U) UOp (Sht )
10        1   1  -136.
FBAN
(NFr) O (NTo) Nc C (Vmn (Vmx Bctrl (Qini) T A (Extr
  104      87  2 D 1000 1100   104        C     104 
(G  O E (U) UOp (Sht )
10        1   0  -136.
FBAN
(NFr) O (NTo) Nc C (Vmn (Vmx Bctrl (Qini) T A (Extr
  105    9601  1 D 1000 1100   105        C     105 
(G  O E (U) UOp (Sht )
10        1   0  -136.
FBAN
(NFr) O (NTo) Nc C (Vmn (Vmx Bctrl (Qini) T A (Extr
  106            D 1000 1100   106        C         
(G  O E (U) UOp (Sht )
10        1   0  -136.
FBAN
(NFr) O (NTo) Nc C (Vmn (Vmx Bctrl (Qini) T A (Extr
   87     106  2 F 0950 1050   106        C     106 
(G  O E (U) UOp (Sht )
10        1   0  -136.
FBAN
(NFr) O (NTo) Nc C (Vmn (Vmx Bctrl (Qini) T A (Extr
  120            D 0950 1050   120        C         
(G  O E (U) UOp (Sht )
10        1   0   150.
FBAN
(NFr) O (NTo) Nc C (Vmn (Vmx Bctrl (Qini) T A (Extr
  122            D 0950 1050   122        C         
(G  O E (U) UOp (Sht )
10        1   0  -180.
FBAN
(NFr) O (NTo) Nc C (Vmn (Vmx Bctrl (Qini) T A (Extr
  126            D 0950 1050   126        C         
(G  O E (U) UOp (Sht )
10        1   0   100.
20        1   0   150.
FBAN
(NFr) O (NTo) Nc C (Vmn (Vmx Bctrl (Qini) T A (Extr
  138            D 0950 1050   138        C         
(G  O E (U) UOp (Sht )
10        1   0   -60.
FBAN
(NFr) O (NTo) Nc C (Vmn (Vmx Bctrl (Qini) T A (Extr
  140            D 1030 1050   140        L         
(G  O E (U) UOp (Sht )
10        2   0  162.5
FBAN
(NFr) O (NTo) Nc C (Vmn (Vmx Bctrl (Qini) T A (Extr
  147    3966  1 D 0950 1050   147   -60. C     147 
(G  O E (U) UOp (Sht )
10        1   1   -60.
FBAN
(NFr) O (NTo) Nc C (Vmn (Vmx Bctrl (Qini) T A (Extr
  147    3966  2 D 0950 1050   147        C     147 
(G  O E (U) UOp (Sht )
10        1   0   -60.
FBAN
(NFr) O (NTo) Nc C (Vmn (Vmx Bctrl (Qini) T A (Extr
  147     149  1 D 0950 1050   149   -60. C     149 
(G  O E (U) UOp (Sht )
10        1   1   -60.
FBAN
(NFr) O (NTo) Nc C (Vmn (Vmx Bctrl (Qini) T A (Extr
 3344     149  1 D 0950 1050   149        C     149 
(G  O E (U) UOp (Sht )
10        1   0   -60.
FBAN
(NFr) O (NTo) Nc C (Vmn (Vmx Bctrl (Qini) T A (Extr
  154            F 1030 1050   154        L         
(G  O E (U) UOp (Sht )
10        3   0    10.
FBAN
(NFr) O (NTo) Nc C (Vmn (Vmx Bctrl (Qini) T A (Extr
  155            F 1030 1050   155    30. L         
(G  O E (U) UOp (Sht )
10        3   3    10.
FBAN
(NFr) O (NTo) Nc C (Vmn (Vmx Bctrl (Qini) T A (Extr
  156            F 1030 1050   156    30. L         
(G  O E (U) UOp (Sht )
10        3   3    10.
FBAN
(NFr) O (NTo) Nc C (Vmn (Vmx Bctrl (Qini) T A (Extr
  157            D 1030 1050   157        L         
(G  O E (U) UOp (Sht )
10        2   0    60.
FBAN
(NFr) O (NTo) Nc C (Vmn (Vmx Bctrl (Qini) T A (Extr
  159            D 0950 1050   159        C         
(G  O E (U) UOp (Sht )
10        1   0   -30.
FBAN
(NFr) O (NTo) Nc C (Vmn (Vmx Bctrl (Qini) T A (Extr
  160            D 0950 1050   160        C         
(G  O E (U) UOp (Sht )
10        1   0   -30.
FBAN
(NFr) O (NTo) Nc C (Vmn (Vmx Bctrl (Qini) T A (Extr
  163            D 0500 1300   163   -25. C         
(G  O E (U) UOp (Sht )
10        2   1   -25.
FBAN
(NFr) O (NTo) Nc C (Vmn (Vmx Bctrl (Qini) T A (Extr
  165            D 0950 1050   165   -25. C         
(G  O E (U) UOp (Sht )
10        2   1   -25.
FBAN
(NFr) O (NTo) Nc C (Vmn (Vmx Bctrl (Qini) T A (Extr
  167            D 0950 1050   167        C         
(G  O E (U) UOp (Sht )
10        1   0   -30.
FBAN
(NFr) O (NTo) Nc C (Vmn (Vmx Bctrl (Qini) T A (Extr
  169            D 1025 1030   169        L         
(G  O E (U) UOp (Sht )
10        2   0   250.
FBAN
(NFr) O (NTo) Nc C (Vmn (Vmx Bctrl (Qini) T A (Extr
  170            D 0950 1050   170        C         
(G  O E (U) UOp (Sht )
10        1   0   150.
FBAN
(NFr) O (NTo) Nc C (Vmn (Vmx Bctrl (Qini) T A (Extr
  174            D 1000 1050   174    75. L         
(G  O E (U) UOp (Sht )
10        2   1    75.
FBAN
(NFr) O (NTo) Nc C (Vmn (Vmx Bctrl (Qini) T A (Extr
  175            D 1030 1050   175    50. L         
(G  O E (U) UOp (Sht )
10        2   1    50.
FBAN
(NFr) O (NTo) Nc C (Vmn (Vmx Bctrl (Qini) T A (Extr
  180            D 1005 1010   180        L         
(G  O E (U) UOp (Sht )
10        2   0   100.
FBAN
(NFr) O (NTo) Nc C (Vmn (Vmx Bctrl (Qini) T A (Extr
  185            D 1000 1050   185    25. L         
(G  O E (U) UOp (Sht )
10        1   1    25.
FBAN
(NFr) O (NTo) Nc C (Vmn (Vmx Bctrl (Qini) T A (Extr
  192            F 1030 1050   192        L         
(G  O E (U) UOp (Sht )
10    D   3   3    10.
FBAN
(NFr) O (NTo) Nc C (Vmn (Vmx Bctrl (Qini) T A (Extr
  193            D 0950 1050   193        C         
(G  O E (U) UOp (Sht )
10    D   2   0   -25.
FBAN
(NFr) O (NTo) Nc C (Vmn (Vmx Bctrl (Qini) T A (Extr
  194            D 0950 1050   194        C         
(G  O E (U) UOp (Sht )
10        1   0   -50.
FBAN
(NFr) O (NTo) Nc C (Vmn (Vmx Bctrl (Qini) T A (Extr
  195            F 1030 1050   195        L         
(G  O E (U) UOp (Sht )
10    D   3   3    10.
FBAN
(NFr) O (NTo) Nc C (Vmn (Vmx Bctrl (Qini) T A (Extr
  196            D 0950 1050   196        C         
(G  O E (U) UOp (Sht )
10        2   0   -50.
FBAN
(NFr) O (NTo) Nc C (Vmn (Vmx Bctrl (Qini) T A (Extr
  197            D 0950 1050   197        C         
(G  O E (U) UOp (Sht )
10        1   0   -50.
FBAN
(NFr) O (NTo) Nc C (Vmn (Vmx Bctrl (Qini) T A (Extr
  198            D 0950 1050   198        C         
(G  O E (U) UOp (Sht )
10        2   0   -50.
FBAN
(NFr) O (NTo) Nc C (Vmn (Vmx Bctrl (Qini) T A (Extr
  199            F 1030 1050   199        L         
(G  O E (U) UOp (Sht )
10        3   0    10.
FBAN
(NFr) O (NTo) Nc C (Vmn (Vmx Bctrl (Qini) T A (Extr
  205            D 1030 1050   205    50. L         
(G  O E (U) UOp (Sht )
10        1   1    50.
FBAN
(NFr) O (NTo) Nc C (Vmn (Vmx Bctrl (Qini) T A (Extr
  206            D 1030 1050   206        L         
(G  O E (U) UOp (Sht )
10        1   0    50.
FBAN
(NFr) O (NTo) Nc C (Vmn (Vmx Bctrl (Qini) T A (Extr
  233     210  1 D 1060 1090   233  -136. L     210 
(G  O E (U) UOp (Sht )
10        1   1  -136.
FBAN
(NFr) O (NTo) Nc C (Vmn (Vmx Bctrl (Qini) T A (Extr
  212            F 1030 1050  2602        L         
(G  O E (U) UOp (Sht )
10    D   3   3    10.
FBAN
(NFr) O (NTo) Nc C (Vmn (Vmx Bctrl (Qini) T A (Extr
  215            D 0950 1050  9858        C         
(G  O E (U) UOp (Sht )
10        2   0   -25.
FBAN
(NFr) O (NTo) Nc C (Vmn (Vmx Bctrl (Qini) T A (Extr
  218            D 1008 1049   218        L         
(G  O E (U) UOp (Sht )
10        1   0   91.5
FBAN
(NFr) O (NTo) Nc C (Vmn (Vmx Bctrl (Qini) T A (Extr
  218     234  1 D 1008 1049   218   -60. L     218 
(G  O E (U) UOp (Sht )
10        1   1   -60.
FBAN
(NFr) O (NTo) Nc C (Vmn (Vmx Bctrl (Qini) T A (Extr
  217     218  2 D 1008 1049   218        L     218 
(G  O E (U) UOp (Sht )
10        1   0   -60.
FBAN
(NFr) O (NTo) Nc C (Vmn (Vmx Bctrl (Qini) T A (Extr
  229            D 1030 1050   229        L         
(G  O E (U) UOp (Sht )
10        1   0   -15.
20        2   0   27.7
FBAN
(NFr) O (NTo) Nc C (Vmn (Vmx Bctrl (Qini) T A (Extr
  231            D 0950 1050   231   -45. C         
(G  O E (U) UOp (Sht )
10        1   1   -45.
FBAN
(NFr) O (NTo) Nc C (Vmn (Vmx Bctrl (Qini) T A (Extr
  232            D 1040 1050   232        L         
(G  O E (U) UOp (Sht )
10        2   0    15.
FBAN
(NFr) O (NTo) Nc C (Vmn (Vmx Bctrl (Qini) T A (Extr
  233            F 1050 1085   233  -136. L         
(G  O E (U) UOp (Sht )
10        1   1  -136.
FBAN
(NFr) O (NTo) Nc C (Vmn (Vmx Bctrl (Qini) T A (Extr
  234            D 1030 1050   234        L         
(G  O E (U) UOp (Sht )
10        2   0   150.
FBAN
(NFr) O (NTo) Nc C (Vmn (Vmx Bctrl (Qini) T A (Extr
  235     299  1 D 1060 1080   235  -136. L     235 
(G  O E (U) UOp (Sht )
10        1   1  -136.
FBAN
(NFr) O (NTo) Nc C (Vmn (Vmx Bctrl (Qini) T A (Extr
  235      92  1 F 1000 1100   235  -73.5 C     235 
(G  O E (U) UOp (Sht )
10        1   1  -73.5
FBAN
(NFr) O (NTo) Nc C (Vmn (Vmx Bctrl (Qini) T A (Extr
  238            D 0950 1050   238        C         
(G  O E (U) UOp (Sht )
10        1   0   -15.
FBAN
(NFr) O (NTo) Nc C (Vmn (Vmx Bctrl (Qini) T A (Extr
  241            F 0950 1050   241    -5. C         
(G  O E (U) UOp (Sht )
10        1   1    -5.
20        1   0   -25.
30    D   3   3    10.
FBAN
(NFr) O (NTo) Nc C (Vmn (Vmx Bctrl (Qini) T A (Extr
  243            D 0500 1300   243        C         
(G  O E (U) UOp (Sht )
10    D   2   0   -25.
FBAN
(NFr) O (NTo) Nc C (Vmn (Vmx Bctrl (Qini) T A (Extr
  245            D 1030 1050   245        L         
(G  O E (U) UOp (Sht )
10    D   2   2   -25.
20        2   0    15.
FBAN
(NFr) O (NTo) Nc C (Vmn (Vmx Bctrl (Qini) T A (Extr
  246            D 0950 1050   246   -50. C         
(G  O E (U) UOp (Sht )
10        2   1   -50.
FBAN
(NFr) O (NTo) Nc C (Vmn (Vmx Bctrl (Qini) T A (Extr
  273            D 0950 1050   273   216. C         
(G  O E (U) UOp (Sht )
10        2   2   108.
FBAN
(NFr) O (NTo) Nc C (Vmn (Vmx Bctrl (Qini) T A (Extr
  274            D 1000 1050   274        L         
(G  O E (U) UOp (Sht )
10        2   0   67.5
FBAN
(NFr) O (NTo) Nc C (Vmn (Vmx Bctrl (Qini) T A (Extr
  277            D 1000 1050   277   67.5 L         
(G  O E (U) UOp (Sht )
10        1   1   67.5
FBAN
(NFr) O (NTo) Nc C (Vmn (Vmx Bctrl (Qini) T A (Extr
  278            D 1000 1050   278   135. L         
(G  O E (U) UOp (Sht )
10        2   2   67.5
FBAN
(NFr) O (NTo) Nc C (Vmn (Vmx Bctrl (Qini) T A (Extr
  299            D 1060 1080   299  -136. L         
(G  O E (U) UOp (Sht )
10        1   1  -136.
FBAN
(NFr) O (NTo) Nc C (Vmn (Vmx Bctrl (Qini) T A (Extr
  310            F 0950 1050   310    18. C         
(G  O E (U) UOp (Sht )
10        3   3     6.
FBAN
(NFr) O (NTo) Nc C (Vmn (Vmx Bctrl (Qini) T A (Extr
  311            F 0950 1050   311    18. C         
(G  O E (U) UOp (Sht )
...